Version 4
SHEET 1 1856 1004
WIRE -736 -528 -736 -720
WIRE -736 -272 -736 -448
WIRE -1104 -208 -1104 -352
WIRE -1104 -32 -1104 -128
WIRE -736 112 -736 -96
WIRE -176 176 -288 176
WIRE 16 176 -176 176
WIRE 544 176 16 176
WIRE -288 256 -288 176
WIRE -288 256 -304 256
WIRE -256 256 -288 256
WIRE 16 256 16 176
WIRE 16 256 -16 256
WIRE 32 256 16 256
WIRE 1456 272 1456 144
WIRE -304 304 -304 256
WIRE -256 304 -304 304
WIRE 32 304 32 256
WIRE 32 304 -16 304
WIRE -144 336 -208 336
WIRE -64 336 -144 336
WIRE 544 368 544 176
WIRE 544 368 528 368
WIRE 576 368 544 368
WIRE 1104 368 1104 224
WIRE -528 400 -592 400
WIRE -384 400 -448 400
WIRE -256 400 -256 352
WIRE -144 400 -144 336
WIRE -144 400 -256 400
WIRE 1456 400 1456 352
WIRE 1616 400 1456 400
WIRE 1808 400 1616 400
WIRE 576 416 576 368
WIRE 576 416 528 416
WIRE -16 448 -16 352
WIRE 480 448 -16 448
WIRE 1456 448 1456 400
WIRE 1808 480 1808 400
WIRE 1552 496 1456 496
WIRE -736 528 -736 368
WIRE -256 528 -256 400
WIRE -16 528 -16 448
WIRE 1104 528 1104 448
WIRE 1408 528 1104 528
WIRE -256 544 -256 528
WIRE 528 544 528 464
WIRE 640 544 528 544
WIRE 928 544 640 544
WIRE 1104 544 1104 528
WIRE 1104 544 992 544
WIRE 1456 560 1456 544
WIRE 1584 560 1456 560
WIRE -208 576 -256 576
WIRE -16 576 -80 576
WIRE 1456 592 1456 560
WIRE -304 608 -336 608
WIRE 80 608 32 608
WIRE 1104 608 1104 544
WIRE 1584 608 1584 560
WIRE 1808 640 1808 544
WIRE 528 656 528 544
WIRE -256 672 -256 624
WIRE -112 672 -256 672
WIRE -16 672 -16 624
WIRE -16 672 -112 672
WIRE 528 688 528 656
WIRE -736 704 -736 608
WIRE -608 704 -736 704
WIRE -1136 720 -1136 576
WIRE -944 720 -944 576
WIRE 336 720 -256 720
WIRE 576 736 528 736
WIRE 1456 736 1456 672
WIRE 1584 736 1584 672
WIRE 1584 736 1456 736
WIRE -736 752 -736 704
WIRE -112 752 -112 672
WIRE 336 768 336 720
WIRE 480 768 336 768
WIRE 576 784 576 736
WIRE 576 784 528 784
WIRE -736 800 -832 800
WIRE -16 800 -112 800
WIRE 1456 800 1456 736
WIRE 1104 816 1104 688
WIRE -608 832 -608 704
WIRE -608 832 -688 832
WIRE -256 832 -256 720
WIRE -256 832 -608 832
WIRE -160 832 -256 832
WIRE -832 880 -832 800
WIRE -784 880 -832 880
WIRE -736 880 -736 848
WIRE -736 880 -784 880
WIRE -112 880 -112 848
WIRE -48 880 -112 880
WIRE -16 880 -16 800
WIRE -16 880 -48 880
WIRE -1136 896 -1136 800
WIRE -944 896 -944 800
WIRE -784 960 -784 880
WIRE -432 960 -784 960
WIRE -48 960 -48 880
WIRE -48 960 -432 960
WIRE 528 960 528 784
WIRE 528 960 -48 960
FLAG -1136 896 0
FLAG -944 896 0
FLAG -944 576 VSS
FLAG -1136 576 VDD
FLAG -1104 -32 0
FLAG -1104 -352 INP
FLAG -736 -720 VDD
FLAG -736 112 INN
FLAG -592 400 INN
FLAG -384 400 OUT
FLAG 640 544 OUT
FLAG 1104 224 VDD
FLAG 1104 816 VSS
FLAG 1456 800 VSS
FLAG 1808 640 0
FLAG 1456 144 VDD
FLAG 1552 496 VSS
FLAG 1616 400 CTLE_OUT
FLAG -736 368 VDD
FLAG -336 608 INN
FLAG 80 608 INP
FLAG -208 576 VSS
FLAG -80 576 VSS
FLAG -432 960 VSS
FLAG -176 176 VDD
FLAG 528 656 OUT
DATAFLAG -736 80 ""
DATAFLAG -736 -352 ""
DATAFLAG -736 -640 ""
DATAFLAG 1744 400 ""
DATAFLAG 1280 528 ""
DATAFLAG 1488 560 ""
DATAFLAG -144 336 ""
DATAFLAG -736 384 ""
DATAFLAG -736 656 ""
DATAFLAG 224 448 ""
DATAFLAG 272 720 ""
DATAFLAG -480 832 ""
DATAFLAG 528 544 ""
DATAFLAG 64 176 ""
DATAFLAG -112 704 ""
DATAFLAG 64 608 ""
DATAFLAG -336 608 ""
SYMBOL voltage -1136 704 R0
WINDOW 123 0 0 Left 0
WINDOW 39 0 0 Left 0
SYMATTR InstName V1
SYMATTR Value 1
SYMBOL voltage -944 704 R0
WINDOW 123 0 0 Left 0
WINDOW 39 0 0 Left 0
SYMATTR InstName V2
SYMATTR Value 0
SYMBOL photodiode -736 -176 R270
SYMATTR InstName X1
SYMBOL current -736 -528 R0
WINDOW 123 24 28 Left 2
WINDOW 39 0 0 Left 0
SYMATTR Value2 AC 1
SYMATTR InstName I1
SYMATTR Value PWL file=project_input.txt
SYMBOL voltage -1104 -224 R0
WINDOW 123 0 0 Left 0
WINDOW 39 0 0 Left 0
SYMATTR InstName V3
SYMATTR Value 0.6
SYMBOL res -432 384 R90
WINDOW 0 0 56 VBottom 2
WINDOW 3 32 56 VTop 2
SYMATTR InstName R1
SYMATTR Value 1.6k
SYMBOL nmos4 1408 448 R0
SYMATTR InstName M1
SYMATTR Value NMOS_VTL
SYMATTR Value2 l=45n w=2.5u
SYMBOL cap 992 528 R90
WINDOW 0 0 32 VBottom 2
WINDOW 3 32 32 VTop 2
SYMATTR InstName C1
SYMATTR Value 40p
SYMBOL res 1088 352 R0
SYMATTR InstName R2
SYMATTR Value 10k
SYMBOL res 1088 592 R0
SYMATTR InstName R3
SYMATTR Value 10k
SYMBOL res 1440 576 R0
SYMATTR InstName R4
SYMATTR Value 1.2k
SYMBOL cap 1568 608 R0
SYMATTR InstName C2
SYMATTR Value 0.08p
SYMBOL res 1440 256 R0
SYMATTR InstName R5
SYMATTR Value 2.29k
SYMBOL cap 1792 480 R0
SYMATTR InstName C3
SYMATTR Value 10f
SYMBOL nmos4 -304 528 R0
WINDOW 3 55 108 Left 2
SYMATTR Value NMOS_VTL
SYMATTR InstName M2
SYMATTR Value2 l=45n w=4.5u
SYMBOL nmos4 32 528 M0
SYMATTR InstName M3
SYMATTR Value NMOS_VTL
SYMATTR Value2 l=45n w=4.5u
SYMBOL nmos4 -160 752 R0
SYMATTR InstName M4
SYMATTR Value NMOS_VTL
SYMATTR Value2 l=180n w=7u
SYMBOL nmos4 -688 752 M0
SYMATTR InstName M5
SYMATTR Value NMOS_VTL
SYMATTR Value2 l=180n w=4.5u
SYMBOL pmos4 -64 256 R0
SYMATTR InstName M6
SYMATTR Value PMOS_VTL
SYMATTR Value2 l=45n w=3u
SYMBOL pmos4 -208 256 M0
SYMATTR InstName M7
SYMATTR Value PMOS_VTL
SYMATTR Value2 l=45n w=3u
SYMBOL pmos4 480 368 R0
SYMATTR InstName M8
SYMATTR Value PMOS_VTL
SYMATTR Value2 l=45n w=2u
SYMBOL nmos4 480 688 R0
SYMATTR InstName M9
SYMATTR Value NMOS_VTL
SYMATTR Value2 l=180n w=4.5u
SYMBOL current -736 528 R0
WINDOW 123 0 0 Left 0
WINDOW 39 0 0 Left 0
SYMATTR InstName I2
SYMATTR Value 300µ
TEXT -48 -120 Left 2 !.inc models_nom\\NMOS_VTL.inc
TEXT -48 -80 Left 2 !.inc models_nom\\PMOS_VTL.inc
TEXT -48 -16 Left 2 ;.ac dec 251 1Mega 100G
TEXT -40 24 Left 2 ;.op
TEXT 264 -24 Left 2 !.tran 0 300ns 150n 1p
TEXT 176 32 Left 2 ;.step param R1 1k 3k 0.5k
TEXT 168 72 Left 2 !.option baudrate={1/100p}
TEXT -40 -168 Left 2 !.meas TRAN POWER_consumption AVG 1*I(V1)
